
#######################################################################
#
#                 Cambridge Crystallographic Data Centre
#                                CCDC 
#
#######################################################################
#
# If this CIF has been generated from an entry in the Cambridge 
# Structural Database, then it will include bibliographic, chemical, 
# crystal, experimental, refinement or atomic coordinate data resulting 
# from the CCDC's data processing and validation procedures.
#
#######################################################################

data_GICNIR
_chemical_formula_moiety         '(C54 H34 O20 Zn3)n,2n(H2 O1),4n(C3 H7 N1 O1)'
_chemical_name_systematic        
"catena-(bis(\m~6~-4,4',4''-(Benzene-1,3,5-triyltris(oxy))tribenzoato)-diaqua-tri-zinc dimethylformamide solvate dihydrate)"
_symmetry_cell_setting           trigonal
_symmetry_space_group_name_H-M   'P -3 1 c'
_symmetry_Int_Tables_number      163
_space_group_name_Hall           "-P 3 2'c"
loop_
_symmetry_equiv_pos_site_id
_symmetry_equiv_pos_as_xyz
1 x,y,z
2 -y,x-y,z
3 -x+y,-x,z
4 -y,-x,1/2-z
5 -x+y,y,1/2-z
6 x,x-y,1/2-z
7 -x,-y,-z
8 y,-x+y,-z
9 x-y,x,-z
10 y,x,1/2+z
11 x-y,-y,1/2+z
12 -x,-x+y,1/2+z
_cell_length_a                   16.7057(4)
_cell_length_b                   16.7057(4)
_cell_length_c                   14.3418(5)
_cell_angle_alpha                90
_cell_angle_beta                 90
_cell_angle_gamma                120
_cell_volume                     3466.28
_exptl_crystal_colour            colorless
_exptl_crystal_description       block
_cell_formula_units_Z            2
loop_
_atom_site_label
_atom_site_type_symbol
_atom_site_fract_x
_atom_site_fract_y
_atom_site_fract_z
O5 O 0.5000 0.5000 0.0000
O6 O 0.567(2) 0.538(2) 0.0642(19)
O7 O 0.2485(18) 0.497(4) 0.2500
C1 C 0.5109(4) 0.2998(4) 0.1063(5)
C2 C 0.4105(4) 0.2704(4) 0.1151(4)
C3 C 0.3512(4) 0.2250(4) 0.0409(4)
H1 H 0.3743 0.2138 -0.0152
C4 C 0.2584(4) 0.1963(4) 0.0495(4)
H2 H 0.2175 0.1658 -0.0011
C5 C 0.2250(4) 0.2116(4) 0.1308(4)
C6 C 0.2838(4) 0.2585(4) 0.2046(4)
H3 H 0.2607 0.2706 0.2602
C7 C 0.3767(4) 0.2872(4) 0.1954(4)
H4 H 0.4177 0.3189 0.2454
C8 C 0.0688(4) 0.0910(4) 0.1346(3)
C9 C -0.0231(4) 0.0703(4) 0.1349(3)
H5 H -0.0385 0.1179 0.1353
Zn1 Zn 0.6667 0.3333 0.2500
Zn2 Zn 0.6667 0.3333 0.00425(9)
O1 O 0.5625(3) 0.3371(3) 0.1736(4)
O2 O 0.5372(3) 0.2855(3) 0.0275(4)
O3 O 0.1322(3) 0.1842(3) 0.1411(3)
O4 O 0.6667 0.3333 -0.1331(12)
C1A C -0.2111(6) -0.5109(4) 0.1063(5)
C2A C -0.1401(6) -0.4105(4) 0.1151(4)
C3A C -0.1262(6) -0.3512(4) 0.0409(4)
H1A H -0.1605 -0.3743 -0.0152
C4A C -0.0621(6) -0.2584(4) 0.0495(4)
H2A H -0.0517 -0.2175 -0.0011
C5A C -0.0134(6) -0.2250(4) 0.1308(4)
C6A C -0.0253(6) -0.2838(4) 0.2046(4)
H3A H 0.0099 -0.2607 0.2602
C7A C -0.0895(6) -0.3767(4) 0.1954(4)
H4A H -0.0988 -0.4177 0.2454
C8A C 0.0222(6) -0.0688(4) 0.1346(3)
C9A C 0.0934(6) 0.0231(4) 0.1349(3)
H5A H 0.1564 0.0385 0.1353
O1A O -0.2254(4) -0.5625(3) 0.1736(4)
O2A O -0.2517(4) -0.5372(3) 0.0275(4)
O3A O 0.0520(4) -0.1322(3) 0.1411(3)
C1B C -0.2998(4) 0.2111(6) 0.1063(5)
C2B C -0.2704(4) 0.1401(6) 0.1151(4)
C3B C -0.2250(4) 0.1262(6) 0.0409(4)
H1B H -0.2138 0.1605 -0.0152
C4B C -0.1963(4) 0.0621(6) 0.0495(4)
H2B H -0.1658 0.0517 -0.0011
C5B C -0.2116(4) 0.0134(6) 0.1308(4)
C6B C -0.2585(4) 0.0253(6) 0.2046(4)
H3B H -0.2706 -0.0099 0.2602
C7B C -0.2872(4) 0.0895(6) 0.1954(4)
H4B H -0.3189 0.0988 0.2454
C8B C -0.0910(4) -0.0222(6) 0.1346(3)
C9B C -0.0703(4) -0.0934(6) 0.1349(3)
H5B H -0.1179 -0.1564 0.1353
O1B O -0.3371(3) 0.2254(4) 0.1736(4)
O2B O -0.2855(3) 0.2517(4) 0.0275(4)
O3B O -0.1842(3) -0.0520(4) 0.1411(3)
C1A_2 C 0.7889(6) 0.4891(4) 0.1063(5)
C2A_2 C 0.8599(6) 0.5895(4) 0.1151(4)
C3A_2 C 0.8738(6) 0.6488(4) 0.0409(4)
H1A_2 H 0.8395 0.6257 -0.0152
C4A_2 C 0.9379(6) 0.7416(4) 0.0495(4)
H2A_2 H 0.9483 0.7825 -0.0011
C5A_2 C 0.9866(6) 0.7750(4) 0.1308(4)
C6A_2 C 0.9747(6) 0.7162(4) 0.2046(4)
H3A_2 H 1.0099 0.7393 0.2602
C7A_2 C 0.9105(6) 0.6233(4) 0.1954(4)
H4A_2 H 0.9012 0.5823 0.2454
C8A_2 C 1.0222(6) 0.9312(4) 0.1346(3)
C9A_2 C 1.0934(6) 1.0231(4) 0.1349(3)
H5A_2 H 1.1564 1.0385 0.1353
O1A_2 O 0.7746(4) 0.4375(3) 0.1736(4)
O2A_2 O 0.7483(4) 0.4628(3) 0.0275(4)
O3A_2 O 1.0520(4) 0.8678(3) 0.1411(3)
C1B_2 C 0.7002(4) 1.2111(6) 0.1063(5)
C2B_2 C 0.7296(4) 1.1401(6) 0.1151(4)
C3B_2 C 0.7750(4) 1.1262(6) 0.0409(4)
H1B_2 H 0.7862 1.1605 -0.0152
C4B_2 C 0.8037(4) 1.0621(6) 0.0495(4)
H2B_2 H 0.8342 1.0517 -0.0011
C5B_2 C 0.7884(4) 1.0134(6) 0.1308(4)
C6B_2 C 0.7415(4) 1.0253(6) 0.2046(4)
H3B_2 H 0.7294 0.9901 0.2602
C7B_2 C 0.7128(4) 1.0895(6) 0.1954(4)
H4B_2 H 0.6811 1.0988 0.2454
C8B_2 C 0.9090(4) 0.9778(6) 0.1346(3)
C9B_2 C 0.9297(4) 0.9066(6) 0.1349(3)
H5B_2 H 0.8821 0.8436 0.1353
O1B_2 O 0.6629(3) 1.2254(4) 0.1736(4)
O2B_2 O 0.7145(3) 1.2517(4) 0.0275(4)
O3B_2 O 0.8158(3) 0.9480(4) 0.1411(3)
C1_2 C 1.5109(4) 1.2998(4) 0.1063(5)
C2_2 C 1.4105(4) 1.2704(4) 0.1151(4)
C3_2 C 1.3512(4) 1.2250(4) 0.0409(4)
H1_2 H 1.3743 1.2138 -0.0152
C4_2 C 1.2584(4) 1.1963(4) 0.0495(4)
H2_2 H 1.2175 1.1658 -0.0011
C5_2 C 1.2250(4) 1.2116(4) 0.1308(4)
C6_2 C 1.2838(4) 1.2585(4) 0.2046(4)
H3_2 H 1.2607 1.2706 0.2602
C7_2 C 1.3767(4) 1.2872(4) 0.1954(4)
H4_2 H 1.4177 1.3189 0.2454
C8_2 C 1.0688(4) 1.0910(4) 0.1346(3)
C9_2 C 0.9769(4) 1.0703(4) 0.1349(3)
H5_2 H 0.9615 1.1179 0.1353
O1_2 O 1.5625(3) 1.3371(3) 0.1736(4)
O2_2 O 1.5372(3) 1.2855(3) 0.0275(4)
O3_2 O 1.1322(3) 1.1842(3) 0.1411(3)
Zn2_2 Zn -0.3333 -0.6667 0.00425(9)
O4_2 O -0.3333 -0.6667 -0.1331(12)
Zn1_2 Zn 1.6667 1.3333 0.2500
Zn1_3 Zn 0.6667 1.3333 0.2500
Zn1_4 Zn -0.3333 0.3333 0.2500
Zn1_5 Zn -0.3333 -0.6667 0.2500
Zn2_3 Zn 1.6667 1.3333 0.00425(9)
Zn2_4 Zn 0.6667 1.3333 0.00425(9)
Zn2_5 Zn -0.3333 0.3333 0.00425(9)
O1B_3 O 0.6629(3) 0.2254(4) 0.1736(4)
O1C O 0.6629(3) 0.4375(3) 0.3264(4)
O1D O 0.5625(3) 0.2254(4) 0.3264(4)
O1E O 0.7746(4) 0.3371(3) 0.3264(4)
O2_3 O -0.4628(3) -0.7145(3) 0.0275(4)
O2B_3 O 0.7145(3) 0.2517(4) 0.0275(4)
O2B_4 O -0.2855(3) -0.7483(4) 0.0275(4)
loop_
_geom_bond_atom_site_label_1
_geom_bond_atom_site_label_2
_geom_bond_site_symmetry_1
_geom_bond_site_symmetry_2
C1 C2 1_555 1_555
C2 C3 1_555 1_555
C3 H1 1_555 1_555
C4 C3 1_555 1_555
H2 C4 1_555 1_555
C5 C4 1_555 1_555
C6 C5 1_555 1_555
H3 C6 1_555 1_555
C7 C2 1_555 1_555
H4 C7 1_555 1_555
C8 C9 1_555 1_555
C9 H5 1_555 1_555
Zn1 O1 1_555 1_555
Zn2 O2 1_555 1_555
O1 C1 1_555 1_555
O2 C1 1_555 1_555
O3 C5 1_555 1_555
O4 Zn2 1_555 1_555
C1A C2A 1_555 1_555
C2A C3A 1_555 1_555
C3A H1A 1_555 1_555
C4A C3A 1_555 1_555
H2A C4A 1_555 1_555
C5A C4A 1_555 1_555
C6A C5A 1_555 1_555
H3A C6A 1_555 1_555
C7A C2A 1_555 1_555
H4A C7A 1_555 1_555
C8A C9A 1_555 1_555
C9A C8 1_555 1_555
H5A C9A 1_555 1_555
O1A C1A 1_555 1_555
O2A C1A 1_555 1_555
O3A C5A 1_555 1_555
C1B C2B 1_555 1_555
C2B C3B 1_555 1_555
C3B H1B 1_555 1_555
C4B C3B 1_555 1_555
H2B C4B 1_555 1_555
C5B C4B 1_555 1_555
C6B C5B 1_555 1_555
H3B C6B 1_555 1_555
C7B C2B 1_555 1_555
H4B C7B 1_555 1_555
C8B C9 1_555 1_555
C9B C8A 1_555 1_555
H5B C9B 1_555 1_555
O1B C1B 1_555 1_555
O2B C1B 1_555 1_555
O3B C5B 1_555 1_555
C1A_2 C2A_2 1_555 1_555
C2A_2 C3A_2 1_555 1_555
C3A_2 H1A_2 1_555 1_555
C4A_2 C3A_2 1_555 1_555
H2A_2 C4A_2 1_555 1_555
C5A_2 C4A_2 1_555 1_555
C6A_2 C5A_2 1_555 1_555
H3A_2 C6A_2 1_555 1_555
C7A_2 C2A_2 1_555 1_555
H4A_2 C7A_2 1_555 1_555
C8A_2 C9A_2 1_555 1_555
C9A_2 H5A_2 1_555 1_555
O1A_2 Zn1 1_555 1_555
O2A_2 Zn2 1_555 1_555
O3A_2 C5A_2 1_555 1_555
C1B_2 C2B_2 1_555 1_555
C2B_2 C3B_2 1_555 1_555
C3B_2 H1B_2 1_555 1_555
C4B_2 C3B_2 1_555 1_555
H2B_2 C4B_2 1_555 1_555
C5B_2 C4B_2 1_555 1_555
C6B_2 C5B_2 1_555 1_555
H3B_2 C6B_2 1_555 1_555
C7B_2 C2B_2 1_555 1_555
H4B_2 C7B_2 1_555 1_555
C8B_2 C9B_2 1_555 1_555
C9B_2 C8A_2 1_555 1_555
H5B_2 C9B_2 1_555 1_555
O1B_2 C1B_2 1_555 1_555
O2B_2 C1B_2 1_555 1_555
O3B_2 C5B_2 1_555 1_555
C1_2 C2_2 1_555 1_555
C2_2 C3_2 1_555 1_555
C3_2 H1_2 1_555 1_555
C4_2 C3_2 1_555 1_555
H2_2 C4_2 1_555 1_555
C5_2 C4_2 1_555 1_555
C6_2 C5_2 1_555 1_555
H3_2 C6_2 1_555 1_555
C7_2 C2_2 1_555 1_555
H4_2 C7_2 1_555 1_555
C8_2 C9A_2 1_555 1_555
C9_2 C8B_2 1_555 1_555
H5_2 C9_2 1_555 1_555
O1_2 C1_2 1_555 1_555
O2_2 C1_2 1_555 1_555
O3_2 C5_2 1_555 1_555
Zn2_2 O2A 1_555 1_555
O4_2 Zn2_2 1_555 1_555
Zn1_2 O1_2 1_555 1_555
Zn1_3 O1B_2 1_555 1_555
Zn1_4 O1B 1_555 1_555
Zn1_5 O1A 1_555 1_555
Zn2_3 O2_2 1_555 1_555
Zn2_4 O2B_2 1_555 1_555
Zn2_5 O2B 1_555 1_555
O1B_3 Zn1 1_555 1_555
O1C Zn1 1_555 1_555
O1D Zn1 1_555 1_555
O1E Zn1 1_555 1_555
O2_3 Zn2_2 1_555 1_555
O2B_3 Zn2 1_555 1_555
O2B_4 Zn2_2 1_555 1_555
C6 C7 1_555 1_555
C8 O3 1_555 1_555
C6A C7A 1_555 1_555
C8A O3A 1_555 1_555
C6B C7B 1_555 1_555
C8B C9B 1_555 1_555
C8B O3B 1_555 1_555
C1A_2 O1A_2 1_555 1_555
C1A_2 O2A_2 1_555 1_555
C6A_2 C7A_2 1_555 1_555
C8A_2 O3A_2 1_555 1_555
C6B_2 C7B_2 1_555 1_555
C8B_2 O3B_2 1_555 1_555
C6_2 C7_2 1_555 1_555
C8_2 C9_2 1_555 1_555
C8_2 O3_2 1_555 1_555

#END
